<?xml version="1.0" encoding="ISO-8859-1"?>
<febio_spec version="2.5">
	<Module type="heat"/>
	<Control>
		<time_steps>10</time_steps>
		<step_size>0.1</step_size>
		<time_stepper>
			<dtmin>0.01</dtmin>
			<dtmax>0.1</dtmax>
			<max_retries>5</max_retries>
			<opt_iter>10</opt_iter>
		</time_stepper>
		<analysis type="static"/>
	</Control>
	<Globals>
		<Constants>
			<T>0</T>
			<R>0</R>
			<Fc>0</Fc>
		</Constants>
	</Globals>
	<Material>
		<material id="1" name="top" type="isotropic Fourier">
			<density>1</density>
			<k>1</k>
			<c>1</c>
		</material>
		<material id="2" name="bottom" type="isotropic Fourier">
			<density>1</density>
			<k>1</k>
			<c>1</c>
		</material>
	</Material>
	<Geometry>
		<Nodes name="Object01">
			<node id="1">-5.0000000e-001,-5.0000000e-001, 0.0000000e+000</node>
			<node id="2">-5.0000000e-001,-5.0000000e-001, 2.0000000e-001</node>
			<node id="3">-5.0000000e-001,-5.0000000e-001, 4.0000000e-001</node>
			<node id="4">-5.0000000e-001,-5.0000000e-001, 6.0000000e-001</node>
			<node id="5">-5.0000000e-001,-5.0000000e-001, 8.0000000e-001</node>
			<node id="6">-5.0000000e-001,-5.0000000e-001, 1.0000000e+000</node>
			<node id="7">-5.0000000e-001,-3.0000000e-001, 0.0000000e+000</node>
			<node id="8">-5.0000000e-001,-3.0000000e-001, 2.0000000e-001</node>
			<node id="9">-5.0000000e-001,-3.0000000e-001, 4.0000000e-001</node>
			<node id="10">-5.0000000e-001,-3.0000000e-001, 6.0000000e-001</node>
			<node id="11">-5.0000000e-001,-3.0000000e-001, 8.0000000e-001</node>
			<node id="12">-5.0000000e-001,-3.0000000e-001, 1.0000000e+000</node>
			<node id="13">-5.0000000e-001,-1.0000000e-001, 0.0000000e+000</node>
			<node id="14">-5.0000000e-001,-1.0000000e-001, 2.0000000e-001</node>
			<node id="15">-5.0000000e-001,-1.0000000e-001, 4.0000000e-001</node>
			<node id="16">-5.0000000e-001,-1.0000000e-001, 6.0000000e-001</node>
			<node id="17">-5.0000000e-001,-1.0000000e-001, 8.0000000e-001</node>
			<node id="18">-5.0000000e-001,-1.0000000e-001, 1.0000000e+000</node>
			<node id="19">-5.0000000e-001, 1.0000000e-001, 0.0000000e+000</node>
			<node id="20">-5.0000000e-001, 1.0000000e-001, 2.0000000e-001</node>
<!-- ... 196 like lines cut -->
		</Nodes>
		<Nodes name="Object02">
			<node id="217">-5.0000000e-001,-5.0000000e-001, 1.1000000e+000</node>
			<node id="218">-5.0000000e-001,-5.0000000e-001, 1.3000000e+000</node>
			<node id="219">-5.0000000e-001,-5.0000000e-001, 1.5000000e+000</node>
			<node id="220">-5.0000000e-001,-5.0000000e-001, 1.7000000e+000</node>
			<node id="221">-5.0000000e-001,-5.0000000e-001, 1.9000000e+000</node>
			<node id="222">-5.0000000e-001,-5.0000000e-001, 2.1000000e+000</node>
			<node id="223">-5.0000000e-001,-3.0000000e-001, 1.1000000e+000</node>
			<node id="224">-5.0000000e-001,-3.0000000e-001, 1.3000000e+000</node>
			<node id="225">-5.0000000e-001,-3.0000000e-001, 1.5000000e+000</node>
			<node id="226">-5.0000000e-001,-3.0000000e-001, 1.7000000e+000</node>
			<node id="227">-5.0000000e-001,-3.0000000e-001, 1.9000000e+000</node>
			<node id="228">-5.0000000e-001,-3.0000000e-001, 2.1000000e+000</node>
			<node id="229">-5.0000000e-001,-1.0000000e-001, 1.1000000e+000</node>
			<node id="230">-5.0000000e-001,-1.0000000e-001, 1.3000000e+000</node>
			<node id="231">-5.0000000e-001,-1.0000000e-001, 1.5000000e+000</node>
			<node id="232">-5.0000000e-001,-1.0000000e-001, 1.7000000e+000</node>
			<node id="233">-5.0000000e-001,-1.0000000e-001, 1.9000000e+000</node>
			<node id="234">-5.0000000e-001,-1.0000000e-001, 2.1000000e+000</node>
			<node id="235">-5.0000000e-001, 1.0000000e-001, 1.1000000e+000</node>
			<node id="236">-5.0000000e-001, 1.0000000e-001, 1.3000000e+000</node>
<!-- ... 196 like lines cut -->
		</Nodes>
		<Elements type="hex8" mat="2" name="Part1">
			<elem id="1">     1,    37,    43,     7,     2,    38,    44,     8</elem>
			<elem id="2">     2,    38,    44,     8,     3,    39,    45,     9</elem>
			<elem id="3">     3,    39,    45,     9,     4,    40,    46,    10</elem>
			<elem id="4">     4,    40,    46,    10,     5,    41,    47,    11</elem>
			<elem id="5">     5,    41,    47,    11,     6,    42,    48,    12</elem>
			<elem id="6">     7,    43,    49,    13,     8,    44,    50,    14</elem>
			<elem id="7">     8,    44,    50,    14,     9,    45,    51,    15</elem>
			<elem id="8">     9,    45,    51,    15,    10,    46,    52,    16</elem>
			<elem id="9">    10,    46,    52,    16,    11,    47,    53,    17</elem>
			<elem id="10">    11,    47,    53,    17,    12,    48,    54,    18</elem>
			<elem id="11">    13,    49,    55,    19,    14,    50,    56,    20</elem>
			<elem id="12">    14,    50,    56,    20,    15,    51,    57,    21</elem>
			<elem id="13">    15,    51,    57,    21,    16,    52,    58,    22</elem>
			<elem id="14">    16,    52,    58,    22,    17,    53,    59,    23</elem>
			<elem id="15">    17,    53,    59,    23,    18,    54,    60,    24</elem>
			<elem id="16">    19,    55,    61,    25,    20,    56,    62,    26</elem>
			<elem id="17">    20,    56,    62,    26,    21,    57,    63,    27</elem>
			<elem id="18">    21,    57,    63,    27,    22,    58,    64,    28</elem>
			<elem id="19">    22,    58,    64,    28,    23,    59,    65,    29</elem>
			<elem id="20">    23,    59,    65,    29,    24,    60,    66,    30</elem>
<!-- ... 105 like lines cut -->
		</Elements>
		<Elements type="hex8" mat="1" name="Part2">
			<elem id="126">   217,   253,   259,   223,   218,   254,   260,   224</elem>
			<elem id="127">   218,   254,   260,   224,   219,   255,   261,   225</elem>
			<elem id="128">   219,   255,   261,   225,   220,   256,   262,   226</elem>
			<elem id="129">   220,   256,   262,   226,   221,   257,   263,   227</elem>
			<elem id="130">   221,   257,   263,   227,   222,   258,   264,   228</elem>
			<elem id="131">   223,   259,   265,   229,   224,   260,   266,   230</elem>
			<elem id="132">   224,   260,   266,   230,   225,   261,   267,   231</elem>
			<elem id="133">   225,   261,   267,   231,   226,   262,   268,   232</elem>
			<elem id="134">   226,   262,   268,   232,   227,   263,   269,   233</elem>
			<elem id="135">   227,   263,   269,   233,   228,   264,   270,   234</elem>
			<elem id="136">   229,   265,   271,   235,   230,   266,   272,   236</elem>
			<elem id="137">   230,   266,   272,   236,   231,   267,   273,   237</elem>
			<elem id="138">   231,   267,   273,   237,   232,   268,   274,   238</elem>
			<elem id="139">   232,   268,   274,   238,   233,   269,   275,   239</elem>
			<elem id="140">   233,   269,   275,   239,   234,   270,   276,   240</elem>
			<elem id="141">   235,   271,   277,   241,   236,   272,   278,   242</elem>
			<elem id="142">   236,   272,   278,   242,   237,   273,   279,   243</elem>
			<elem id="143">   237,   273,   279,   243,   238,   274,   280,   244</elem>
			<elem id="144">   238,   274,   280,   244,   239,   275,   281,   245</elem>
			<elem id="145">   239,   275,   281,   245,   240,   276,   282,   246</elem>
<!-- ... 105 like lines cut -->
		</Elements>
		<NodeSet name="FixedTemperature1">
			<node id="1"/>
			<node id="7"/>
			<node id="13"/>
			<node id="19"/>
			<node id="25"/>
			<node id="31"/>
			<node id="37"/>
			<node id="43"/>
			<node id="49"/>
			<node id="55"/>
			<node id="61"/>
			<node id="67"/>
			<node id="73"/>
			<node id="79"/>
			<node id="85"/>
			<node id="91"/>
			<node id="97"/>
			<node id="103"/>
			<node id="109"/>
			<node id="115"/>
<!-- ... 16 like lines cut -->
		</NodeSet>
		<NodeSet name="PrescribedTemperature1">
			<node id="222"/>
			<node id="228"/>
			<node id="234"/>
			<node id="240"/>
			<node id="246"/>
			<node id="252"/>
			<node id="258"/>
			<node id="264"/>
			<node id="270"/>
			<node id="276"/>
			<node id="282"/>
			<node id="288"/>
			<node id="294"/>
			<node id="300"/>
			<node id="306"/>
			<node id="312"/>
			<node id="318"/>
			<node id="324"/>
			<node id="330"/>
			<node id="336"/>
<!-- ... 16 like lines cut -->
		</NodeSet>
		<Surface name="GapHeatFlux1_master">
			<quad4 id="1">   241,   247,   283,   277</quad4>
			<quad4 id="2">   235,   241,   277,   271</quad4>
			<quad4 id="3">   229,   235,   271,   265</quad4>
			<quad4 id="4">   223,   229,   265,   259</quad4>
			<quad4 id="5">   217,   223,   259,   253</quad4>
			<quad4 id="6">   277,   283,   319,   313</quad4>
			<quad4 id="7">   271,   277,   313,   307</quad4>
			<quad4 id="8">   265,   271,   307,   301</quad4>
			<quad4 id="9">   259,   265,   301,   295</quad4>
			<quad4 id="10">   253,   259,   295,   289</quad4>
			<quad4 id="11">   313,   319,   355,   349</quad4>
			<quad4 id="12">   307,   313,   349,   343</quad4>
			<quad4 id="13">   301,   307,   343,   337</quad4>
			<quad4 id="14">   295,   301,   337,   331</quad4>
			<quad4 id="15">   289,   295,   331,   325</quad4>
			<quad4 id="16">   349,   355,   391,   385</quad4>
			<quad4 id="17">   343,   349,   385,   379</quad4>
			<quad4 id="18">   337,   343,   379,   373</quad4>
			<quad4 id="19">   331,   337,   373,   367</quad4>
			<quad4 id="20">   325,   331,   367,   361</quad4>
<!-- ... 5 like lines cut -->
		</Surface>
		<Surface name="GapHeatFlux1_slave">
			<quad4 id="1">     6,    42,    48,    12</quad4>
			<quad4 id="2">    12,    48,    54,    18</quad4>
			<quad4 id="3">    18,    54,    60,    24</quad4>
			<quad4 id="4">    24,    60,    66,    30</quad4>
			<quad4 id="5">    30,    66,    72,    36</quad4>
			<quad4 id="6">    42,    78,    84,    48</quad4>
			<quad4 id="7">    48,    84,    90,    54</quad4>
			<quad4 id="8">    54,    90,    96,    60</quad4>
			<quad4 id="9">    60,    96,   102,    66</quad4>
			<quad4 id="10">    66,   102,   108,    72</quad4>
			<quad4 id="11">    78,   114,   120,    84</quad4>
			<quad4 id="12">    84,   120,   126,    90</quad4>
			<quad4 id="13">    90,   126,   132,    96</quad4>
			<quad4 id="14">    96,   132,   138,   102</quad4>
			<quad4 id="15">   102,   138,   144,   108</quad4>
			<quad4 id="16">   114,   150,   156,   120</quad4>
			<quad4 id="17">   120,   156,   162,   126</quad4>
			<quad4 id="18">   126,   162,   168,   132</quad4>
			<quad4 id="19">   132,   168,   174,   138</quad4>
			<quad4 id="20">   138,   174,   180,   144</quad4>
<!-- ... 5 like lines cut -->
		</Surface>
		<SurfacePair name="GapHeatFlux1">
			<master surface="GapHeatFlux1_master"/>
			<slave surface="GapHeatFlux1_slave"/>
		</SurfacePair>
	</Geometry>
	<Boundary>
		<fix bc="T" node_set="FixedTemperature1"/>
		<prescribe bc="T" node_set="PrescribedTemperature1">
			<scale lc="1">1</scale>
			<relative>0</relative>
		</prescribe>
	</Boundary>
	<Contact>
		<contact type="gap heat flux" surface_pair="GapHeatFlux1">
			<hc>1</hc>
		</contact>
	</Contact>
	<LoadData>
		<loadcurve id="1" type="smooth">
			<point>0,0</point>
			<point>1,1</point>
		</loadcurve>
	</LoadData>
	<Output>
		<plotfile type="febio">
			<var type="temperature"/>
			<var type="heat flux"/>
		</plotfile>
	</Output>
</febio_spec>
